 54 53  0  0  0  0  0  0  0  0999 V2000
    4.3443    0.8523    1.0132 C   0  0  0  0  0  0  0  0  0  0  0  0
    4.8947    0.9228   -0.4113 C   0  0  0  0  0  0  0  0  0  0  0  0
    6.4214    1.0221   -0.5178 C   0  0  0  0  0  0  0  0  0  0  0  0
    7.1639   -0.0724    0.1912 C   0  0  0  0  0  0  0  0  0  0  0  0
    7.4369   -1.3018   -0.2716 C   0  0  0  0  0  0  0  0  0  0  0  0
    7.0676   -1.8695   -1.6111 C   0  0  0  0  0  0  0  0  0  0  0  0
    5.8234   -2.7088   -1.5524 C   0  0  0  0  0  0  0  0  0  0  0  0
    5.4530   -3.6293   -2.4573 C   0  0  0  0  0  0  0  0  0  0  0  0
    6.1999   -4.0170   -3.7008 C   0  0  0  0  0  0  0  0  0  0  0  0
    5.6210   -3.3662   -4.9227 C   0  0  0  0  0  0  0  0  0  0  0  0
    6.2347   -2.5138   -5.7587 C   0  0  0  0  0  0  0  0  0  0  0  0
    7.6417   -1.9923   -5.6724 C   0  0  0  0  0  0  0  0  0  0  0  0
    8.6944   -3.0531   -5.8145 C   0  0  0  0  0  0  0  0  0  0  0  0
    9.0178   -3.7320   -6.9255 C   0  0  0  0  0  0  0  0  0  0  0  0
    8.4083   -3.5775   -8.2874 C   0  0  0  0  0  0  0  0  0  0  0  0
    9.1788   -2.5978   -9.1792 C   0  0  0  0  0  0  0  0  0  0  0  0
   10.4245   -3.2157   -9.8265 C   0  0  0  0  0  0  0  0  0  0  0  0
   11.6736   -3.1124   -8.9430 C   0  0  0  0  0  0  0  0  0  0  0  0
   12.7724   -2.2516   -9.5538 C   0  0  0  0  0  0  0  0  0  0  0  0
    4.7363    2.0483    1.8425 C   0  0  0  0  0  0  0  0  0  0  0  0
    4.2865    3.1764    1.6950 O   0  0  0  0  0  0  0  0  0  0  0  0
    5.6523    1.7166    2.7856 O   0  0  0  0  0  0  0  0  0  0  0  0
    4.6603   -0.0726    1.5081 H   0  0  0  0  0  0  0  0  0  0  0  0
    3.2488    0.8294    0.9773 H   0  0  0  0  0  0  0  0  0  0  0  0
    4.5474    0.0420   -0.9651 H   0  0  0  0  0  0  0  0  0  0  0  0
    4.4531    1.7868   -0.9254 H   0  0  0  0  0  0  0  0  0  0  0  0
    6.7072    1.0471   -1.5759 H   0  0  0  0  0  0  0  0  0  0  0  0
    6.7500    1.9843   -0.1066 H   0  0  0  0  0  0  0  0  0  0  0  0
    7.5223    0.1730    1.1888 H   0  0  0  0  0  0  0  0  0  0  0  0
    7.9942   -1.9693    0.3842 H   0  0  0  0  0  0  0  0  0  0  0  0
    6.9365   -1.0782   -2.3552 H   0  0  0  0  0  0  0  0  0  0  0  0
    7.9161   -2.4771   -1.9463 H   0  0  0  0  0  0  0  0  0  0  0  0
    5.1491   -2.5465   -0.7129 H   0  0  0  0  0  0  0  0  0  0  0  0
    4.5172   -4.1584   -2.2821 H   0  0  0  0  0  0  0  0  0  0  0  0
    7.2683   -3.8181   -3.5916 H   0  0  0  0  0  0  0  0  0  0  0  0
    6.1130   -5.1036   -3.8276 H   0  0  0  0  0  0  0  0  0  0  0  0
    4.5924   -3.6352   -5.1595 H   0  0  0  0  0  0  0  0  0  0  0  0
    5.6535   -2.1442   -6.6026 H   0  0  0  0  0  0  0  0  0  0  0  0
    7.7895   -1.2290   -6.4468 H   0  0  0  0  0  0  0  0  0  0  0  0
    7.7767   -1.4781   -4.7134 H   0  0  0  0  0  0  0  0  0  0  0  0
    9.2573   -3.2809   -4.9105 H   0  0  0  0  0  0  0  0  0  0  0  0
    9.8119   -4.4718   -6.8441 H   0  0  0  0  0  0  0  0  0  0  0  0
    8.3681   -4.5652   -8.7623 H   0  0  0  0  0  0  0  0  0  0  0  0
    7.3673   -3.2466   -8.2143 H   0  0  0  0  0  0  0  0  0  0  0  0
    8.5049   -2.2734   -9.9830 H   0  0  0  0  0  0  0  0  0  0  0  0
    9.4388   -1.6840   -8.6293 H   0  0  0  0  0  0  0  0  0  0  0  0
   10.2409   -4.2691  -10.0709 H   0  0  0  0  0  0  0  0  0  0  0  0
   10.5853   -2.7219  -10.7921 H   0  0  0  0  0  0  0  0  0  0  0  0
   11.4286   -2.7062   -7.9551 H   0  0  0  0  0  0  0  0  0  0  0  0
   12.0651   -4.1216   -8.7623 H   0  0  0  0  0  0  0  0  0  0  0  0
   12.4565   -1.7429  -10.4690 H   0  0  0  0  0  0  0  0  0  0  0  0
   13.0869   -1.4796   -8.8439 H   0  0  0  0  0  0  0  0  0  0  0  0
   13.6485   -2.8617   -9.7946 H   0  0  0  0  0  0  0  0  0  0  0  0
    5.2561    1.2344    3.5427 H   0  0  0  0  0  0  0  0  0  0  0  0
 20  1  1  0  0  0  0
  1  2  1  0  0  0  0
  2  3  1  0  0  0  0
  3  4  1  0  0  0  0
  4  5  2  0  0  0  0
  5  6  1  0  0  0  0
  6  7  1  0  0  0  0
  7  8  2  0  0  0  0
  8  9  1  0  0  0  0
  9 10  1  0  0  0  0
 10 11  2  0  0  0  0
 11 12  1  0  0  0  0
 12 13  1  0  0  0  0
 13 14  2  0  0  0  0
 14 15  1  0  0  0  0
 15 16  1  0  0  0  0
 16 17  1  0  0  0  0
 17 18  1  0  0  0  0
 18 19  1  0  0  0  0
 20 21  2  0  0  0  0
 20 22  1  0  0  0  0
  1 23  1  0  0  0  0
  1 24  1  0  0  0  0
  2 25  1  0  0  0  0
  2 26  1  0  0  0  0
  3 27  1  0  0  0  0
  3 28  1  0  0  0  0
  4 29  1  0  0  0  0
  5 30  1  0  0  0  0
  6 31  1  0  0  0  0
  6 32  1  0  0  0  0
  7 33  1  0  0  0  0
  8 34  1  0  0  0  0
  9 35  1  0  0  0  0
  9 36  1  0  0  0  0
 10 37  1  0  0  0  0
 11 38  1  0  0  0  0
 12 39  1  0  0  0  0
 12 40  1  0  0  0  0
 13 41  1  0  0  0  0
 14 42  1  0  0  0  0
 15 43  1  0  0  0  0
 15 44  1  0  0  0  0
 16 45  1  0  0  0  0
 16 46  1  0  0  0  0
 17 47  1  0  0  0  0
 17 48  1  0  0  0  0
 18 49  1  0  0  0  0
 18 50  1  0  0  0  0
 19 51  1  0  0  0  0
 19 52  1  0  0  0  0
 19 53  1  0  0  0  0
 22 54  1  0  0  0  0
M  END
>  <energy>
34.417673332226165
